Circuit: * C:\Users\tbyrne\yellow_fuzz\sims\dist_1_to_2.asc


Date: Fri Apr 03 14:48:35 2020
Total elapsed time: 0.028 seconds.

tnom = 27
temp = 27
method = trap
totiter = 0
traniter = 0
tranpoints = 0
accept = 0
rejected = 0
matrix size = 6
fillins = 2
solver = Normal

