Circuit: * C:\Users\tbyrne\yellow_fuzz\sims\fairfield_barbershop.asc

Direct Newton iteration for .op point succeeded.

Date: Sat Nov 30 16:44:19 2019
Total elapsed time: 0.125 seconds.

tnom = 27
temp = 27
method = modified trap
totiter = 1423
traniter = 1410
tranpoints = 479
accept = 327
rejected = 152
matrix size = 33
fillins = 16
solver = Normal
Matrix Compiler1: 2.73 KB object code size  0.5/0.4/[0.1]
Matrix Compiler2: 2.86 KB object code size  0.2/0.4/[0.2]

