Circuit: * C:\Users\tbyrne\yellow_fuzz\sims\j201.asc


Date: Sun Dec 01 11:31:17 2019
Total elapsed time: 0.051 seconds.

tnom = 27
temp = 27
method = trap
totiter = 182
traniter = 0
tranpoints = 0
accept = 0
rejected = 0
matrix size = 7
fillins = 0
solver = Normal
Matrix Compiler1: 214 bytes object code size  0.1/0.1/[0.0]
Matrix Compiler2: off  [0.0]/0.1/0.1

