Circuit: * C:\Users\tbyrne\yellow_fuzz\sims\mt2_input.asc

Direct Newton iteration for .op point succeeded.

Date: Sun Dec 01 12:30:17 2019
Total elapsed time: 0.042 seconds.

tnom = 27
temp = 27
method = modified trap
totiter = 420
traniter = 414
tranpoints = 208
accept = 138
rejected = 70
matrix size = 12
fillins = 0
solver = Normal
Matrix Compiler1: 472 bytes object code size  0.1/0.1/[0.1]
Matrix Compiler2: 838 bytes object code size  0.1/0.1/[0.1]

