Circuit: * C:\Users\tbyrne\yellow_fuzz\sims\mt2_predistortion.asc

Direct Newton iteration failed to find .op point.  (Use ".option noopiter" to skip.)
Starting Gmin stepping
Gmin = 10
Gmin = 1.07374
Gmin = 0.115292
Gmin = 0.0123794
Gmin = 0.00132923
Gmin = 0.000142725
Gmin = 1.5325e-005
Gmin = 1.6455e-006
vernier = 0.5
vernier = 0.25
Gmin = 5.61917e-007
vernier = 0.333333
vernier = 0.444444
Gmin = 2.49417e-007
vernier = 0.592592
Gmin = 7.14348e-008
vernier = 0.790123
vernier = 1
Gmin = 9.92087e-009
Gmin = 1.06525e-009
Gmin = 1.1438e-010
Gmin = 1.22814e-011
Gmin = 1.31871e-012
Gmin = 1.41595e-013
Gmin = 0
Gmin stepping succeeded in finding the operating point.


Date: Fri Apr 03 14:31:39 2020
Total elapsed time: 0.065 seconds.

tnom = 27
temp = 27
method = trap
totiter = 665
traniter = 0
tranpoints = 0
accept = 0
rejected = 0
matrix size = 21
fillins = 17
solver = Normal
Matrix Compiler1:      92 opcodes
Matrix Compiler2: off  [0.2]/0.2/0.2

