Circuit: * C:\Users\tbyrne\yellow_fuzz\sims\Draft5.asc


Date: Sun Dec 01 12:53:20 2019
Total elapsed time: 0.028 seconds.

tnom = 27
temp = 27
method = trap
totiter = 0
traniter = 0
tranpoints = 0
accept = 0
rejected = 0
matrix size = 6
fillins = 2
solver = Normal

